head_05017_chimera.pdb
  PyMOL2.2          3D                             0

137144  0  0  0  0  0  0  0  0999 V2000
   56.7100   19.2290   31.4800 N   0  0  0  0  0  0  0  0  0  0  0  0
   57.3030   17.8310   31.6680 C   0  0  0  0  0  0  0  0  0  0  0  0
   63.6470   11.7870   28.1610 C   0  0  0  0  0  0  0  0  0  0  0  0
   57.0480   22.3180   29.5620 C   0  0  0  0  0  0  0  0  0  0  0  0
   56.6190   24.0550   31.2840 C   0  0  0  0  0  0  0  0  0  0  0  0
   58.7490   22.7550   31.2890 C   0  0  0  0  0  0  0  0  0  0  0  0
   61.9930   15.3410   30.0050 C   0  0  0  0  0  0  0  0  0  0  0  0
   59.8980   14.3820   30.6590 C   0  0  0  0  0  0  0  0  0  0  0  0
   62.1220   14.3640   29.0030 C   0  0  0  0  0  0  0  0  0  0  0  0
   60.0250   13.4090   29.6650 C   0  0  0  0  0  0  0  0  0  0  0  0
   60.7510   10.7060   26.1090 C   0  0  0  0  0  0  0  0  0  0  0  0
   58.6900   17.6980   31.3740 C   0  0  0  0  0  0  0  0  0  0  0  0
   59.2550   18.4450   30.5680 O   0  0  0  0  0  0  0  0  0  0  0  0
   54.2640   22.3110   33.6970 O   0  0  0  0  0  0  0  0  0  0  0  0
   58.1800   20.2250   32.8830 O   0  0  0  0  0  0  0  0  0  0  0  0
   56.4830   16.9270   30.7470 C   0  0  0  0  0  0  0  0  0  0  0  0
   60.7480   16.3340   31.8460 C   0  0  0  0  0  0  0  0  0  0  0  0
   55.8240   22.8940   35.4690 C   0  0  0  0  0  0  0  0  0  0  0  0
   55.4380   22.3920   34.0790 C   0  0  0  0  0  0  0  0  0  0  0  0
   57.2180   20.3020   32.1180 C   0  0  0  0  0  0  0  0  0  0  0  0
   62.2460   11.6500   27.5460 C   0  0  0  0  0  0  0  0  0  0  0  0
   61.9970   10.7270   26.5890 N   0  0  0  0  0  0  0  0  0  0  0  0
   59.3170   16.6910   32.0320 N   0  0  0  0  0  0  0  0  0  0  0  0
   56.5180   22.1670   33.3240 N   0  0  0  0  0  0  0  0  0  0  0  0
   59.9090   11.8650   26.9030 S   0  0  0  0  0  0  0  0  0  0  0  0
   55.1610   17.6550   30.5550 C   0  0  0  0  0  0  0  0  0  0  0  0
   55.5180   19.1430   30.5840 C   0  0  0  0  0  0  0  0  0  0  0  0
   54.2550   17.3520   31.6320 O   0  0  0  0  0  0  0  0  0  0  0  0
   54.4770   40.0320   38.2550 C   0  0  0  0  0  0  0  0  0  0  0  0
   61.3035   15.7757   33.1512 C   0  0  0  0  0  0  0  0  0  0  0  0
   59.6380   35.5710   40.8810 N   0  0  0  0  0  0  0  0  0  0  0  0
   56.6110   40.7980   37.7620 O   0  0  0  0  0  0  0  0  0  0  0  0
   56.0210   39.8320   38.1260 C   0  0  0  0  0  0  0  0  0  0  0  0
   57.6360   34.7150   40.0120 N   0  0  0  0  0  0  0  0  0  0  0  0
   54.5840   37.3810   37.8210 O   0  0  0  0  0  0  0  0  0  0  0  0
   56.5130   38.4990   38.4860 C   0  0  0  0  0  0  0  0  0  0  0  0
   56.2170   36.0010   38.5000 N   0  0  0  0  0  0  0  0  0  0  0  0
   57.7150   38.4100   39.2380 C   0  0  0  0  0  0  0  0  0  0  0  0
   59.2320   33.3350   41.0250 N   0  0  0  0  0  0  0  0  0  0  0  0
   58.5180   39.5380   39.6440 C   0  0  0  0  0  0  0  0  0  0  0  0
   59.1130   31.0680   40.5950 N   0  0  0  0  0  0  0  0  0  0  0  0
   58.1280   36.9930   39.5970 C   0  0  0  0  0  0  0  0  0  0  0  0
   56.3500   28.5920   40.3770 N   0  0  0  0  0  0  0  0  0  0  0  0
   59.2590   36.7880   40.5090 C   0  0  0  0  0  0  0  0  0  0  0  0
   55.0790   26.4530   38.8280 N   0  3  0  0  0  0  0  0  0  0  0  0
   58.7830   34.5900   40.7010 C   0  0  0  0  0  0  0  0  0  0  0  0
   57.3890   35.8350   39.3300 C   0  0  0  0  0  0  0  0  0  0  0  0
   55.5770   34.8290   37.9450 C   0  0  0  0  0  0  0  0  0  0  0  0
   56.4740   33.7250   37.2050 C   0  0  0  0  0  0  0  0  0  0  0  0
   55.8890   32.3590   37.5910 C   0  0  0  0  0  0  0  0  0  0  0  0
   54.5790   32.7120   38.2290 C   0  0  0  0  0  0  0  0  0  0  0  0
   54.6520   34.0580   38.8950 C   0  0  0  0  0  0  0  0  0  0  0  0
   55.7350   37.3100   38.2580 C   0  0  0  0  0  0  0  0  0  0  0  0
   58.4910   32.1630   41.0030 C   0  0  0  0  0  0  0  0  0  0  0  0
   58.4910   29.8470   40.4840 C   0  0  0  0  0  0  0  0  0  0  0  0
   57.1040   29.7600   40.6590 C   0  0  0  0  0  0  0  0  0  0  0  0
   56.4080   30.9390   41.1330 C   0  0  0  0  0  0  0  0  0  0  0  0
   57.1430   32.1080   41.3850 C   0  0  0  0  0  0  0  0  0  0  0  0
   56.9560   27.2670   40.3550 C   0  0  0  0  0  0  0  0  0  0  0  0
   56.5490   26.5900   39.0300 C   0  0  0  0  0  0  0  0  0  0  0  0
   54.4310   27.7870   38.8620 C   0  0  0  0  0  0  0  0  0  0  0  0
   54.8940   28.5890   40.1260 C   0  0  0  0  0  0  0  0  0  0  0  0
   55.0870   24.1600   35.7700 C   0  0  0  0  0  0  0  0  0  0  0  0
   55.4590   24.6640   37.1660 C   0  0  0  0  0  0  0  0  0  0  0  0
   54.6820   25.9470   37.4690 C   0  0  0  0  0  0  0  0  0  0  0  0
   60.8700   15.3740   30.8440 C   0  0  0  0  0  0  0  0  0  0  0  0
   61.1350   13.3780   28.8200 C   0  0  0  0  0  0  0  0  0  0  0  0
   61.1960   12.4050   27.8820 C   0  0  0  0  0  0  0  0  0  0  0  0
   56.5120   21.6550   31.9580 C   0  0  0  0  0  0  0  0  0  0  0  0
   57.2380   22.6760   31.0370 C   0  0  0  0  0  0  0  0  0  0  0  0
   57.1356   17.5191   32.6989 H   0  0  0  0  0  0  0  0  0  0  0  0
   64.2438   10.9115   27.9052 H   0  0  0  0  0  0  0  0  0  0  0  0
   63.5617   11.8643   29.2449 H   0  0  0  0  0  0  0  0  0  0  0  0
   64.1296   12.6826   27.7697 H   0  0  0  0  0  0  0  0  0  0  0  0
   55.9834   22.2511   29.3380 H   0  0  0  0  0  0  0  0  0  0  0  0
   57.5022   23.0891   28.9398 H   0  0  0  0  0  0  0  0  0  0  0  0
   57.5234   21.3588   29.3568 H   0  0  0  0  0  0  0  0  0  0  0  0
   57.1100   24.7931   30.6498 H   0  0  0  0  0  0  0  0  0  0  0  0
   56.7511   24.3301   32.3304 H   0  0  0  0  0  0  0  0  0  0  0  0
   55.5553   24.0233   31.0481 H   0  0  0  0  0  0  0  0  0  0  0  0
   58.9309   23.0090   32.3333 H   0  0  0  0  0  0  0  0  0  0  0  0
   59.2053   21.7908   31.0651 H   0  0  0  0  0  0  0  0  0  0  0  0
   59.1848   23.5210   30.6475 H   0  0  0  0  0  0  0  0  0  0  0  0
   62.7718   16.0786   30.1309 H   0  0  0  0  0  0  0  0  0  0  0  0
   59.0294   14.3694   31.3006 H   0  0  0  0  0  0  0  0  0  0  0  0
   62.9923   14.3701   28.3635 H   0  0  0  0  0  0  0  0  0  0  0  0
   59.2494   12.6666   29.5482 H   0  0  0  0  0  0  0  0  0  0  0  0
   60.3701   10.0484   25.3416 H   0  0  0  0  0  0  0  0  0  0  0  0
   56.3205   15.9541   31.2109 H   0  0  0  0  0  0  0  0  0  0  0  0
   56.9892   16.8073   29.7891 H   0  0  0  0  0  0  0  0  0  0  0  0
   61.3099   17.2246   31.5647 H   0  0  0  0  0  0  0  0  0  0  0  0
   56.8970   23.0832   35.5008 H   0  0  0  0  0  0  0  0  0  0  0  0
   55.5666   22.1390   36.2118 H   0  0  0  0  0  0  0  0  0  0  0  0
   58.7767   16.1488   32.6909 H   0  0  0  0  0  0  0  0  0  0  0  0
   57.4178   22.3694   33.7358 H   0  0  0  0  0  0  0  0  0  0  0  0
   54.7155   17.3889   29.5964 H   0  0  0  0  0  0  0  0  0  0  0  0
   54.0331   16.4182   31.6110 H   0  0  0  0  0  0  0  0  0  0  0  0
   54.6916   19.7287   30.9865 H   0  0  0  0  0  0  0  0  0  0  0  0
   55.7732   19.4893   29.5825 H   0  0  0  0  0  0  0  0  0  0  0  0
   60.7445   14.8830   33.4317 H   0  0  0  0  0  0  0  0  0  0  0  0
   55.4873   21.5055   31.6179 H   0  0  0  0  0  0  0  0  0  0  0  0
   60.1985   33.2567   41.3077 H   0  0  0  0  0  0  0  0  0  0  0  0
   59.7953   37.6462   40.8862 H   0  0  0  0  0  0  0  0  0  0  0  0
   54.9168   35.2154   37.1685 H   0  0  0  0  0  0  0  0  0  0  0  0
   61.2091   16.5253   33.9369 H   0  0  0  0  0  0  0  0  0  0  0  0
   62.3545   15.5194   33.0183 H   0  0  0  0  0  0  0  0  0  0  0  0
   59.0678   28.9610   40.2634 H   0  0  0  0  0  0  0  0  0  0  0  0
   55.3397   30.9187   41.2901 H   0  0  0  0  0  0  0  0  0  0  0  0
   56.6762   32.9543   41.8670 H   0  0  0  0  0  0  0  0  0  0  0  0
   54.2605   41.0845   38.4382 H   0  0  0  0  0  0  0  0  0  0  0  0
   54.1016   39.4342   39.0855 H   0  0  0  0  0  0  0  0  0  0  0  0
   53.9914   39.7165   37.3316 H   0  0  0  0  0  0  0  0  0  0  0  0
   59.2771   39.2078   40.3532 H   0  0  0  0  0  0  0  0  0  0  0  0
   59.0025   39.9723   38.7695 H   0  0  0  0  0  0  0  0  0  0  0  0
   57.8811   40.2864   40.1156 H   0  0  0  0  0  0  0  0  0  0  0  0
   56.4264   33.8634   36.1249 H   0  0  0  0  0  0  0  0  0  0  0  0
   57.5074   33.7966   37.5442 H   0  0  0  0  0  0  0  0  0  0  0  0
   56.5394   31.8411   38.2959 H   0  0  0  0  0  0  0  0  0  0  0  0
   55.7278   31.7488   36.7023 H   0  0  0  0  0  0  0  0  0  0  0  0
   54.3310   31.9575   38.9756 H   0  0  0  0  0  0  0  0  0  0  0  0
   53.8013   32.7309   37.4655 H   0  0  0  0  0  0  0  0  0  0  0  0
   53.6686   34.5241   38.9562 H   0  0  0  0  0  0  0  0  0  0  0  0
   55.1004   33.9739   39.8849 H   0  0  0  0  0  0  0  0  0  0  0  0
   56.5948   26.6792   41.1989 H   0  0  0  0  0  0  0  0  0  0  0  0
   58.0411   27.3567   40.4054 H   0  0  0  0  0  0  0  0  0  0  0  0
   56.9510   27.1827   38.2083 H   0  0  0  0  0  0  0  0  0  0  0  0
   56.9984   25.5976   38.9947 H   0  0  0  0  0  0  0  0  0  0  0  0
   54.7051   28.3419   37.9648 H   0  0  0  0  0  0  0  0  0  0  0  0
   53.3487   27.6613   38.8914 H   0  0  0  0  0  0  0  0  0  0  0  0
   54.5718   29.6232   40.0044 H   0  0  0  0  0  0  0  0  0  0  0  0
   54.3942   28.1727   41.0006 H   0  0  0  0  0  0  0  0  0  0  0  0
   54.0142   23.9714   35.7287 H   0  0  0  0  0  0  0  0  0  0  0  0
   55.3500   24.9163   35.0304 H   0  0  0  0  0  0  0  0  0  0  0  0
   55.2075   23.9038   37.9056 H   0  0  0  0  0  0  0  0  0  0  0  0
   56.5288   24.8692   37.2052 H   0  0  0  0  0  0  0  0  0  0  0  0
   54.9146   26.7007   36.7167 H   0  0  0  0  0  0  0  0  0  0  0  0
   53.6125   25.7371   37.4563 H   0  0  0  0  0  0  0  0  0  0  0  0
  1  2  1  0  0  0  0
  2 16  1  0  0  0  0
  3 21  1  0  0  0  0
  4 70  1  0  0  0  0
  5 70  1  0  0  0  0
  6 70  1  0  0  0  0
  7  9  4  0  0  0  0
  7 66  4  0  0  0  0
  8 10  4  0  0  0  0
  8 66  4  0  0  0  0
  9 67  4  0  0  0  0
 10 67  4  0  0  0  0
 11 22  4  0  0  0  0
 11 25  4  0  0  0  0
  2 12  1  0  0  0  0
 12 13  2  0  0  0  0
 12 23  1  0  0  0  0
 16 26  1  0  0  0  0
 17 23  1  0  0  0  0
 17 66  1  0  0  0  0
 18 19  1  0  0  0  0
 18 63  1  0  0  0  0
 14 19  2  0  0  0  0
 19 24  1  0  0  0  0
  1 20  1  0  0  0  0
 15 20  2  0  0  0  0
 20 69  1  0  0  0  0
 21 22  4  0  0  0  0
 21 68  4  0  0  0  0
 26 28  1  0  0  0  0
  1 27  1  0  0  0  0
 26 27  1  0  0  0  0
 29 33  1  0  0  0  0
 17 30  1  0  0  0  0
 32 33  2  0  0  0  0
 33 36  2  0  0  0  0
 36 38  2  0  0  0  0
 36 53  1  0  0  0  0
 38 40  1  0  0  0  0
 38 42  1  0  0  0  0
 42 44  4  0  0  0  0
 42 47  4  0  0  0  0
 31 44  4  0  0  0  0
 45 65  1  0  0  0  0
 31 46  4  0  0  0  0
 34 46  4  0  0  0  0
 39 46  1  0  0  0  0
 34 47  4  0  0  0  0
 37 47  1  0  0  0  0
 37 48  1  0  0  0  0
 48 49  1  0  0  0  0
 48 52  1  0  0  0  0
 49 50  1  0  0  0  0
 50 51  1  0  0  0  0
 51 52  1  0  0  0  0
 35 53  2  0  0  0  0
 37 53  1  0  0  0  0
 39 54  1  0  0  0  0
 41 54  4  0  0  0  0
 54 58  4  0  0  0  0
 41 55  4  0  0  0  0
 55 56  4  0  0  0  0
 43 56  1  0  0  0  0
 56 57  4  0  0  0  0
 57 58  4  0  0  0  0
 43 59  1  0  0  0  0
 59 60  1  0  0  0  0
 45 60  1  0  0  0  0
 45 61  1  0  0  0  0
 61 62  1  0  0  0  0
 43 62  1  0  0  0  0
 63 64  1  0  0  0  0
 64 65  1  0  0  0  0
 67 68  1  0  0  0  0
 25 68  4  0  0  0  0
 24 69  1  0  0  0  0
 69 70  1  0  0  0  0
  2 71  1  0  0  0  0
  3 72  1  0  0  0  0
  3 73  1  0  0  0  0
  3 74  1  0  0  0  0
  4 75  1  0  0  0  0
  4 76  1  0  0  0  0
  4 77  1  0  0  0  0
  5 78  1  0  0  0  0
  5 79  1  0  0  0  0
  5 80  1  0  0  0  0
  6 81  1  0  0  0  0
  6 82  1  0  0  0  0
  6 83  1  0  0  0  0
  7 84  1  0  0  0  0
  8 85  1  0  0  0  0
  9 86  1  0  0  0  0
 10 87  1  0  0  0  0
 11 88  1  0  0  0  0
 16 89  1  0  0  0  0
 16 90  1  0  0  0  0
 17 91  1  0  0  0  0
 18 92  1  0  0  0  0
 18 93  1  0  0  0  0
 23 94  1  0  0  0  0
 24 95  1  0  0  0  0
 26 96  1  0  0  0  0
 28 97  1  0  0  0  0
 27 98  1  0  0  0  0
 27 99  1  0  0  0  0
 30100  1  0  0  0  0
 69101  1  0  0  0  0
 39102  1  0  0  0  0
 44103  1  0  0  0  0
 48104  1  0  0  0  0
 30105  1  0  0  0  0
 30106  1  0  0  0  0
 55107  1  0  0  0  0
 57108  1  0  0  0  0
 58109  1  0  0  0  0
 29110  1  0  0  0  0
 29111  1  0  0  0  0
 29112  1  0  0  0  0
 40113  1  0  0  0  0
 40114  1  0  0  0  0
 40115  1  0  0  0  0
 49116  1  0  0  0  0
 49117  1  0  0  0  0
 50118  1  0  0  0  0
 50119  1  0  0  0  0
 51120  1  0  0  0  0
 51121  1  0  0  0  0
 52122  1  0  0  0  0
 52123  1  0  0  0  0
 59124  1  0  0  0  0
 59125  1  0  0  0  0
 60126  1  0  0  0  0
 60127  1  0  0  0  0
 61128  1  0  0  0  0
 61129  1  0  0  0  0
 62130  1  0  0  0  0
 62131  1  0  0  0  0
 63132  1  0  0  0  0
 63133  1  0  0  0  0
 64134  1  0  0  0  0
 64135  1  0  0  0  0
 65136  1  0  0  0  0
 65137  1  0  0  0  0
M  END
$$$$
